omf/scratch/gosedWeather/Orville Tree Pond Calibrated.glm
clock {
	timezone PST+8PDT;
	starttime '2014-01-01 00:00:00';
	stoptime '2014-01-11 00:00:00';
};

#set minimum_timestep=3600;
#set profiler=1;
#set relax_naming_rules=1;
module generators;
module tape;
module residential {
	implicit_enduses NONE;
};

module powerflow {
	solver_method FBS;
};

object node {
	phases ABCN;
	name SUPER ARBOR LAKE;
	bustype SWING;
	nominal_voltage 7200.0;
};

object underground_line {
	phases ABC;
	from SUPER ARBOR LAKE;
	name SUPER LINK;
	to ARBOR LAKE;
	nominal_voltage 7200.0;
	configuration 1151929-LINECONFIG;
};

object node {
	phases ABCN;
	name ARBOR LAKE;
	nominal_voltage 7200.0;
};

object underground_line {
	phases ACB;
	from ARBOR LAKE;
	name 1069647;
	to nodeD956171069647;
	length 19;
	configuration 1151929-LINECONFIG;
};

object fuse {
	phases ACB;
	from nodeD956171069647;
	name D95617;
	current_limit 9999.0 A;
	to node1077548D95617;
};

object underground_line {
	phases ACB;
	from node1077548D95617;
	name 1077548;
	to node11005201077548;
	length 10;
	configuration 1151929-LINECONFIG;
};

object underground_line {
	phases ACB;
	from node11005201077548;
	name 1100520;
	to node95881-B1100520;
	length 308;
	configuration 1151929-LINECONFIG;
};

object switch {
	status CLOSED;
	phases ACB;
	from node95881-B1100520;
	name 95881-B;
	to node95881-A95881-B;
};

object switch {
	status CLOSED;
	phases ACB;
	from node95881-A95881-B;
	name 95881-A;
	to node110052195881-A;
};

object underground_line {
	phases ACB;
	from node110052195881-A;
	name 1100521;
	to node10740441100521;
	length 10;
	configuration 1151929-LINECONFIG;
};

object underground_line {
	phases ACB;
	from node10740441100521;
	name 1074044;
	to node94914-A1074044;
	length 28;
	configuration 1151929-LINECONFIG;
};

object underground_line {
	phases ACB;
	from node10740441100521;
	name 1074052;
	to node95154-A1074052;
	length 25;
	configuration 1151929-LINECONFIG;
};

object underground_line {
	phases ACB;
	from node10740441100521;
	name 1100523;
	to node96360-B1100523;
	length 10;
	configuration 1151929-LINECONFIG;
};

object switch {
	status CLOSED;
	phases ACB;
	from node96360-B1100523;
	name 96360-B;
	to node96360-A96360-B;
};

object switch {
	status CLOSED;
	phases ACB;
	from node96360-A96360-B;
	name 96360-A;
	to node110052496360-A;
};

object underground_line {
	phases ACB;
	from node110052496360-A;
	name 1100524;
	to node95667-B1100524;
	length 1230;
	configuration 1151929-LINECONFIG;
};

object switch {
	status CLOSED;
	phases ACB;
	from node95667-B1100524;
	name 95667-B;
	to node95667-A95667-B;
};

object switch {
	status CLOSED;
	phases ACB;
	from node95667-A95667-B;
	name 95667-A;
	to node110005995667-A;
};

object underground_line {
	phases ACB;
	from node110005995667-A;
	name 1100059;
	to node11000811100059;
	length 10;
	configuration 1151929-LINECONFIG;
};

object underground_line {
	phases ACB;
	from node11000811100059;
	name 1100081;
	to node96224-B1100081;
	length 10;
	configuration 1151929-LINECONFIG;
};

object switch {
	status CLOSED;
	phases ACB;
	from node96224-B1100081;
	name 96224-B;
	to node96224-A96224-B;
};

object switch {
	status CLOSED;
	phases ACB;
	from node96224-A96224-B;
	name 96224-A;
	to node110075296224-A;
};

object underground_line {
	phases ACB;
	from node110075296224-A;
	name 1100752;
	to node95990-B1100752;
	length 1676;
	configuration 1151929-LINECONFIG;
};

object switch {
	status CLOSED;
	phases ACB;
	from node95990-B1100752;
	name 95990-B;
	to node95990-A95990-B;
};

object switch {
	status CLOSED;
	phases ACB;
	from node95990-A95990-B;
	name 95990-A;
	to node110075395990-A;
};

object underground_line {
	phases ACB;
	from node110075395990-A;
	name 1100753;
	to node11007551100753;
	length 10;
	configuration 1151929-LINECONFIG;
};

object underground_line {
	phases ACB;
	from node11007551100753;
	name 1100755;
	to nodeR963981100755;
	length 21;
	configuration 1094591-LINECONFIG;
};

object fuse {
	phases ACB;
	from nodeR963981100755;
	name R96398;
	current_limit 9999.0 A;
	to node1100754R96398;
};

object underground_line {
	phases ACB;
	from node1100754R96398;
	name 1100754;
	to node10944981100754;
	length 501;
	configuration 1094591-LINECONFIG;
};

object underground_line {
	phases ACB;
	from node10944981100754;
	name 1094498;
	to node10944971094498;
	length 901;
	configuration 1094591-LINECONFIG;
};

object underground_line {
	phases ACB;
	from node10944971094498;
	name 1094497;
	to node10944951094497;
	length 785;
	configuration 1094591-LINECONFIG;
};

object underground_line {
	phases ACB;
	from node10944951094497;
	name 1094495;
	to node11022481094495;
	length 357;
	configuration 1094591-LINECONFIG;
};

object underground_line {
	phases ACB;
	from node11022481094495;
	name 1102248;
	to node96061-A1102248;
	length 185;
	configuration 1094591-LINECONFIG;
};

object underground_line {
	phases ACB;
	from node11007551100753;
	name 1100758;
	to nodeR963991100758;
	length 17;
	configuration 1094591-LINECONFIG;
};

object fuse {
	phases ACB;
	from nodeR963991100758;
	name R96399;
	current_limit 9999.0 A;
	to node1100756R96399;
};

object underground_line {
	phases ACB;
	from node1100756R96399;
	name 1100756;
	to node10946511100756;
	length 44;
	configuration 1094591-LINECONFIG;
};

object underground_line {
	phases ACB;
	from node10946511100756;
	name 1094651;
	to node10945921094651;
	length 1262;
	configuration 1094591-LINECONFIG;
};

object underground_line {
	phases ACB;
	from node10945921094651;
	name 1094592;
	to node10945911094592;
	length 671;
	configuration 1094591-LINECONFIG;
};

object line_configuration {
	name 1094591-LINECONFIG;
	spacing 1085257-LINESPACING;
	conductor_A 1085565-LINECONFIGunderground_line_conductor57303;
	conductor_C 1085565-LINECONFIGunderground_line_conductor57303;
	conductor_B 1085565-LINECONFIGunderground_line_conductor57303;
};

object underground_line {
	phases ACB;
	from node10945911094592;
	name 1094591;
	to node11013091094591;
	length 110;
	configuration 1094591-LINECONFIG;
};

object underground_line {
	phases ACB;
	from node11013091094591;
	name 1101309;
	to node11012991101309;
	length 167;
	configuration 1094591-LINECONFIG;
};

object underground_line {
	phases ACB;
	from node11012991101309;
	name 1101299;
	to node95259-A1101299;
	length 510;
	configuration 1094591-LINECONFIG;
};

object underground_line {
	phases ACB;
	from node11007551100753;
	name 1104457;
	to node98664-B1104457;
	length 10;
	configuration 1151929-LINECONFIG;
};

object switch {
	status CLOSED;
	phases ACB;
	from node98664-B1104457;
	name 98664-B;
	to node98664-A98664-B;
};

object switch {
	status CLOSED;
	phases ACB;
	from node98664-A98664-B;
	name 98664-A;
	to node110445598664-A;
};

object underground_line {
	phases ACB;
	from node110445598664-A;
	name 1104455;
	to node102921-A1104455;
	length 349;
	configuration 1151929-LINECONFIG;
};

object underground_line {
	phases ACB;
	from node11000811100059;
	name 1100121;
	to nodeR962031100121;
	length 10;
	configuration 1094591-LINECONFIG;
};

object fuse {
	phases ACB;
	from nodeR962031100121;
	name R96203;
	current_limit 9999.0 A;
	to node1100122R96203;
};

object underground_line {
	phases ACB;
	from node1100122R96203;
	name 1100122;
	to node10726521100122;
	length 10;
	configuration 1094591-LINECONFIG;
};

object underground_line {
	phases ACB;
	from node10726521100122;
	name 1100080;
	to node10945751100080;
	length 199;
	configuration 1094591-LINECONFIG;
};

object underground_line {
	phases ACB;
	from node10945751100080;
	name 1094575;
	to node10942471094575;
	length 224;
	configuration 1094591-LINECONFIG;
};

object underground_line {
	phases ACB;
	from node10942471094575;
	name 1094247;
	to node95259-B1094247;
	length 68;
	configuration 1094591-LINECONFIG;
};

object underground_line {
	phases ACB;
	from node11000811100059;
	name 1100134;
	to nodeR962041100134;
	length 10;
	configuration 1094591-LINECONFIG;
};

object fuse {
	phases ACB;
	from nodeR962041100134;
	name R96204;
	current_limit 9999.0 A;
	to node1100133R96204;
};

object underground_line {
	phases ACB;
	from node1100133R96204;
	name 1100133;
	to node11549841100133;
	length 324;
	configuration 1094591-LINECONFIG;
};

object underground_line {
	phases ACB;
	from node11549841100133;
	name 1154984;
	to node11549831154984;
	length 80;
	configuration 1094591-LINECONFIG;
};

object underground_line {
	phases ACB;
	from node11549831154984;
	name 1154983;
	to node11549791154983;
	length 81;
	configuration 1094591-LINECONFIG;
};

object underground_line {
	phases ACB;
	from node11549791154983;
	name 1154979;
	to node10942501154979;
	length 305;
	configuration 1094591-LINECONFIG;
};

object underground_line {
	phases ACB;
	from node10942501154979;
	name 1094250;
	to node10942491094250;
	length 405;
	configuration 1094591-LINECONFIG;
};

object underground_line {
	phases ACB;
	from node10942491094250;
	name 1094249;
	to node10944761094249;
	length 399;
	configuration 1094591-LINECONFIG;
};

object underground_line {
	phases ACB;
	from node10944761094249;
	name 1094476;
	to node10944751094476;
	length 221;
	configuration 1094591-LINECONFIG;
};

object underground_line {
	phases ACB;
	from node10944751094476;
	name 1094475;
	to node11163741094475;
	length 204;
	configuration 1094591-LINECONFIG;
};

object underground_line {
	phases ACB;
	from node11163741094475;
	name 1116374;
	to node101341-B1116374;
	length 30;
	configuration 1094591-LINECONFIG;
};

object underground_line {
	phases ACB;
	from ARBOR LAKE;
	name 1069649;
	to nodeF956161069649;
	length 19;
	configuration 1151929-LINECONFIG;
};

object fuse {
	phases ACB;
	from nodeF956161069649;
	name F95616;
	current_limit 9999.0 A;
	to node1077546F95616;
};

object underground_line {
	phases ACB;
	from node1077546F95616;
	name 1077546;
	to node10775471077546;
	length 10;
	configuration 1151929-LINECONFIG;
};

object underground_line {
	phases ACB;
	from node10775471077546;
	name 1077547;
	to node11005901077547;
	length 10;
	configuration 1151929-LINECONFIG;
};

object underground_line {
	phases ACB;
	from node11005901077547;
	name 1100590;
	to node96361-A1100590;
	length 274;
	configuration 1151929-LINECONFIG;
};

object underground_line {
	phases ACB;
	from ARBOR LAKE;
	name 1069650;
	to nodeF956151069650;
	length 23;
	configuration 1151929-LINECONFIG;
};

object fuse {
	phases ACB;
	from nodeF956151069650;
	name F95615;
	current_limit 9999.0 A;
	to node1077544F95615;
};

object underground_line {
	phases ACB;
	from node1077544F95615;
	name 1077544;
	to node11005921077544;
	length 10;
	configuration 1151929-LINECONFIG;
};

object underground_line {
	phases ACB;
	from node11005921077544;
	name 1100592;
	to node95883-B1100592;
	length 259;
	configuration 1151929-LINECONFIG;
};

object switch {
	status CLOSED;
	phases ACB;
	from node95883-B1100592;
	name 95883-B;
	to node95883-A95883-B;
};

object switch {
	status CLOSED;
	phases ACB;
	from node95883-A95883-B;
	name 95883-A;
	to node110059395883-A;
};

object underground_line {
	phases ACB;
	from node110059395883-A;
	name 1100593;
	to node10740461100593;
	length 10;
	configuration 1151929-LINECONFIG;
};

object underground_line {
	phases ACB;
	from node10740461100593;
	name 1074046;
	to node94920-B1074046;
	length 24;
	configuration 1151929-LINECONFIG;
};

object underground_line {
	phases ACB;
	from node10740461100593;
	name 1074047;
	to node94921-B1074047;
	length 25;
	configuration 1151929-LINECONFIG;
};

object underground_line {
	phases ACB;
	from node10740461100593;
	name 1100594;
	to node96362-B1100594;
	length 10;
	configuration 1151929-LINECONFIG;
};

object switch {
	status CLOSED;
	phases ACB;
	from node96362-B1100594;
	name 96362-B;
	to node96362-A96362-B;
};

object switch {
	status CLOSED;
	phases ACB;
	from node96362-A96362-B;
	name 96362-A;
	to node110059596362-A;
};

object underground_line {
	phases ACB;
	from node110059596362-A;
	name 1100595;
	to node95690-B1100595;
	length 3552;
	configuration 1151929-LINECONFIG;
};

object switch {
	status CLOSED;
	phases ACB;
	from node95690-B1100595;
	name 95690-B;
	to node95690-A95690-B;
};

object switch {
	status CLOSED;
	phases ACB;
	from node95690-A95690-B;
	name 95690-A;
	to node110016795690-A;
};

object underground_line {
	phases ACB;
	from node110016795690-A;
	name 1100167;
	to node10757451100167;
	length 10;
	configuration 1151929-LINECONFIG;
};

object underground_line {
	phases ACB;
	from node10757451100167;
	name 1075745;
	to node95124-A1075745;
	length 61;
	configuration 1100101-LINECONFIG;
};

object underground_line {
	phases ACB;
	from node10757451100167;
	name 1078947;
	to nodeR928831078947;
	length 23;
	configuration 1085257-LINECONFIG;
};

object fuse {
	phases ACB;
	from nodeR928831078947;
	name R92883;
	current_limit 9999.0 A;
	to node1091470R92883;
};

object underground_line {
	phases ACB;
	from node1091470R92883;
	name 1091470;
	to node10914711091470;
	length 104;
	configuration 1085257-LINECONFIG;
};

object underground_line {
	phases ACB;
	from node10914711091470;
	name 1091471;
	to node10914581091471;
	length 803;
	configuration 1085257-LINECONFIG;
};

object underground_line {
	phases ACB;
	from node10914581091471;
	name 1091458;
	to node10914571091458;
	length 488;
	configuration 1085257-LINECONFIG;
};

object underground_line {
	phases ACB;
	from node10914571091458;
	name 1091457;
	to node95130-A1091457;
	length 112;
	configuration 1085257-LINECONFIG;
};

object underground_line {
	phases ACB;
	from node10757451100167;
	name 1100195;
	to node96240-B1100195;
	length 10;
	configuration 1100101-LINECONFIG;
};

object switch {
	status CLOSED;
	phases ACB;
	from node96240-B1100195;
	name 96240-B;
	to node96240-A96240-B;
};

object switch {
	status CLOSED;
	phases ACB;
	from node96240-A96240-B;
	name 96240-A;
	to node110061196240-A;
};

object underground_line {
	phases ACB;
	from node110061196240-A;
	name 1100611;
	to node95912-B1100611;
	length 1149;
	configuration 1100101-LINECONFIG;
};

object switch {
	status CLOSED;
	phases ACB;
	from node95912-B1100611;
	name 95912-B;
	to node95912-A95912-B;
};

object switch {
	status CLOSED;
	phases ACB;
	from node95912-A95912-B;
	name 95912-A;
	to node110060495912-A;
};

object underground_line {
	phases ACB;
	from node110060495912-A;
	name 1100604;
	to node10808451100604;
	length 10;
	configuration 1100101-LINECONFIG;
};

object underground_line {
	phases B;
	from node10808451100604;
	name 1080845;
	to nodeD938711080845;
	length 21.7276;
	configuration 1075245-LINECONFIG;
};

object fuse {
	phases B;
	from nodeD938711080845;
	name D93871;
	current_limit 9999.0 A;
	to node1080846D93871;
};

object underground_line {
	phases B;
	from node1080846D93871;
	name 1080846;
	to node4403841080846;
	length 60.6879;
	configuration 1075245-LINECONFIG;
};

object underground_line {
	phases ACB;
	from node10808451100604;
	name 1100615;
	to node96366-B1100615;
	length 10;
	configuration 1100101-LINECONFIG;
};

object switch {
	status CLOSED;
	phases ACB;
	from node96366-B1100615;
	name 96366-B;
	to node96366-A96366-B;
};

object switch {
	status CLOSED;
	phases ACB;
	from node96366-A96366-B;
	name 96366-A;
	to node110061496366-A;
};

object underground_line {
	phases ACB;
	from node110061496366-A;
	name 1100614;
	to node95646-B1100614;
	length 571;
	configuration 1100101-LINECONFIG;
};

object switch {
	status CLOSED;
	phases ACB;
	from node95646-B1100614;
	name 95646-B;
	to node95646-A95646-B;
};

object switch {
	status CLOSED;
	phases ACB;
	from node95646-A95646-B;
	name 95646-A;
	to node110010295646-A;
};

object underground_line {
	phases ACB;
	from node110010295646-A;
	name 1100102;
	to node10808471100102;
	length 10;
	configuration 1100101-LINECONFIG;
};

object underground_line {
	phases ACB;
	from node10808471100102;
	name 1080847;
	to nodeR938721080847;
	length 21;
	configuration 1085257-LINECONFIG;
};

object fuse {
	phases ACB;
	from nodeR938721080847;
	name R93872;
	current_limit 9999.0 A;
	to node1091454R93872;
};

object underground_line {
	phases ACB;
	from node1091454R93872;
	name 1091454;
	to node10914551091454;
	length 537;
	configuration 1085257-LINECONFIG;
};

object underground_line {
	phases ACB;
	from node10914551091454;
	name 1091455;
	to node10914561091455;
	length 366;
	configuration 1085257-LINECONFIG;
};

object underground_line {
	phases ACB;
	from node10914561091455;
	name 1091456;
	to node95130-B1091456;
	length 487;
	configuration 1085257-LINECONFIG;
};

object underground_line {
	phases ACB;
	from node10808471100102;
	name 1100105;
	to node96212-B1100105;
	length 10;
	configuration 1100101-LINECONFIG;
};

object switch {
	status CLOSED;
	phases ACB;
	from node96212-B1100105;
	name 96212-B;
	to node96212-A96212-B;
};

object switch {
	status CLOSED;
	phases ACB;
	from node96212-A96212-B;
	name 96212-A;
	to node110031696212-A;
};

object underground_line {
	phases ACB;
	from node110031696212-A;
	name 1100316;
	to node95745-B1100316;
	length 554;
	configuration 1100101-LINECONFIG;
};

object switch {
	status CLOSED;
	phases ACB;
	from node95745-B1100316;
	name 95745-B;
	to node95745-A95745-B;
};

object switch {
	status CLOSED;
	phases ACB;
	from node95745-A95745-B;
	name 95745-A;
	to node110031595745-A;
};

object underground_line {
	phases ACB;
	from node110031595745-A;
	name 1100315;
	to node10789641100315;
	length 13;
	configuration 1100101-LINECONFIG;
};

object underground_line {
	phases ACB;
	from node10789641100315;
	name 1078964;
	to nodeR928911078964;
	length 30;
	configuration 1085257-LINECONFIG;
};

object fuse {
	phases ACB;
	from nodeR928911078964;
	name R92891;
	current_limit 9999.0 A;
	to node1085255R92891;
};

object underground_line {
	phases ACB;
	from node1085255R92891;
	name 1085255;
	to node10852571085255;
	length 676;
	configuration 1085257-LINECONFIG;
};

object line_configuration {
	name 1085257-LINECONFIG;
	spacing 1085257-LINESPACING;
	conductor_A 1085257-LINECONFIGunderground_line_conductor24505;
	conductor_C 1085257-LINECONFIGunderground_line_conductor24505;
	conductor_B 1085257-LINECONFIGunderground_line_conductor24505;
};

object line_spacing {
	distance_AN 0.0;
	name 1085257-LINESPACING;
	distance_CN 0.0;
	distance_BC 4.472136;
	distance_AB 4.472136;
	distance_AC 8.000000;
	distance_BN 0.0;
};

object underground_line_conductor {
	conductor_gmr 0.017;
	insulation_relative_permitivitty 2.4;
	conductor_resistance 0.56496;
	shield_resistance 0.000000;
	neutral_gmr 0.0317574;
	outer_diameter 1.359996;
	neutral_strands 11;
	neutral_resistance 1.2672;
	neutral_diameter 0.420036;
	conductor_diameter 0.563000;
	shield_gmr 0.000000;
	name 1085257-LINECONFIGunderground_line_conductor24505;
};

object underground_line {
	phases ACB;
	from node10852571085255;
	name 1085257;
	to node10852561085257;
	length 1031;
	configuration 1085257-LINECONFIG;
};

object underground_line {
	phases ACB;
	from node10852561085257;
	name 1085256;
	to node95160-B1085256;
	length 68;
	configuration 1085257-LINECONFIG;
};

object underground_line {
	phases ACB;
	from node10789641100315;
	name 1100318;
	to node96280-B1100318;
	length 10;
	configuration 1100101-LINECONFIG;
};

object switch {
	status CLOSED;
	phases ACB;
	from node96280-B1100318;
	name 96280-B;
	to node96280-A96280-B;
};

object switch {
	status CLOSED;
	phases ACB;
	from node96280-A96280-B;
	name 96280-A;
	to node110031796280-A;
};

object underground_line {
	phases ACB;
	from node110031796280-A;
	name 1100317;
	to node95644-B1100317;
	length 380;
	configuration 1100101-LINECONFIG;
};

object switch {
	status CLOSED;
	phases ACB;
	from node95644-B1100317;
	name 95644-B;
	to node95644-A95644-B;
};

object switch {
	status CLOSED;
	phases ACB;
	from node95644-A95644-B;
	name 95644-A;
	to node110008895644-A;
};

object underground_line {
	phases ACB;
	from node110008895644-A;
	name 1100088;
	to node10811831100088;
	length 10;
	configuration 1100101-LINECONFIG;
};

object underground_line {
	phases ACB;
	from node10811831100088;
	name 1081183;
	to nodeR940691081183;
	length 28;
	configuration 1085257-LINECONFIG;
};

object fuse {
	phases ACB;
	from nodeR940691081183;
	name R94069;
	current_limit 9999.0 A;
	to node1085262R94069;
};

object underground_line {
	phases ACB;
	from node1085262R94069;
	name 1085262;
	to node10852641085262;
	length 84.3471;
	configuration 1085257-LINECONFIG;
};

object underground_line {
	phases ACB;
	from node10852641085262;
	name 1085264;
	to node10852631085264;
	length 697;
	configuration 1085257-LINECONFIG;
};

object underground_line {
	phases ACB;
	from node10852631085264;
	name 1085263;
	to node94772-B1085263;
	length 294;
	configuration 1085257-LINECONFIG;
};

object underground_line {
	phases ACB;
	from node10811831100088;
	name 1081184;
	to nodeR940701081184;
	length 41;
	configuration 1085257-LINECONFIG;
};

object fuse {
	phases ACB;
	from nodeR940701081184;
	name R94070;
	current_limit 9999.0 A;
	to node1085258R94070;
};

object underground_line {
	phases ACB;
	from node1085258R94070;
	name 1085258;
	to node10852591085258;
	length 399;
	configuration 1085257-LINECONFIG;
};

object underground_line {
	phases ACB;
	from node10852591085258;
	name 1085259;
	to node95160-A1085259;
	length 991;
	configuration 1085257-LINECONFIG;
};

object underground_line {
	phases ACB;
	from node10811831100088;
	name 1100099;
	to node96210-B1100099;
	length 10;
	configuration 1100101-LINECONFIG;
};

object switch {
	status CLOSED;
	phases ACB;
	from node96210-B1100099;
	name 96210-B;
	to node96210-A96210-B;
};

object switch {
	status CLOSED;
	phases ACB;
	from node96210-A96210-B;
	name 96210-A;
	to node110006696210-A;
};

object underground_line {
	phases ACB;
	from node110006696210-A;
	name 1100066;
	to node95645-B1100066;
	length 839;
	configuration 1100101-LINECONFIG;
};

object switch {
	status CLOSED;
	phases ACB;
	from node95645-B1100066;
	name 95645-B;
	to node95645-A95645-B;
};

object switch {
	status CLOSED;
	phases ACB;
	from node95645-A95645-B;
	name 95645-A;
	to node110006595645-A;
};

object underground_line {
	phases ACB;
	from node110006595645-A;
	name 1100065;
	to node10789481100065;
	length 10;
	configuration 1100101-LINECONFIG;
};

object underground_line {
	phases ACB;
	from node10789481100065;
	name 1078948;
	to nodeR928841078948;
	length 43;
	configuration 1085257-LINECONFIG;
};

object fuse {
	phases ACB;
	from nodeR928841078948;
	name R92884;
	current_limit 9999.0 A;
	to node1085269R92884;
};

object underground_line {
	phases ACB;
	from node1085269R92884;
	name 1085269;
	to node10852701085269;
	length 480;
	configuration 1085257-LINECONFIG;
};

object underground_line {
	phases ACB;
	from node10852701085269;
	name 1085270;
	to node10852681085270;
	length 1191;
	configuration 1085257-LINECONFIG;
};

object underground_line {
	phases ACB;
	from node10852681085270;
	name 1085268;
	to node94772-A1085268;
	length 69;
	configuration 1085257-LINECONFIG;
};

object line_configuration {
	name 1100101-LINECONFIG;
	spacing 1085257-LINESPACING;
	conductor_A 1100101-LINECONFIGunderground_line_conductor30004;
	conductor_C 1100101-LINECONFIGunderground_line_conductor30004;
	conductor_B 1100101-LINECONFIGunderground_line_conductor30004;
};

object underground_line_conductor {
	conductor_gmr 0.025;
	insulation_relative_permitivitty 2.4;
	conductor_resistance 0.25344;
	shield_resistance 0.000000;
	neutral_gmr 0.0317574;
	outer_diameter 1.650000;
	neutral_strands 25;
	neutral_resistance 0.53328;
	neutral_diameter 0.420000;
	conductor_diameter 0.880000;
	shield_gmr 0.000000;
	name 1100101-LINECONFIGunderground_line_conductor30004;
};

object underground_line {
	phases ACB;
	from node10789481100065;
	name 1100101;
	to node96211-B1100101;
	length 10;
	configuration 1100101-LINECONFIG;
};

object switch {
	status CLOSED;
	phases ACB;
	from node96211-B1100101;
	name 96211-B;
	to node96211-A96211-B;
};

object switch {
	status CLOSED;
	phases ACB;
	from node96211-A96211-B;
	name 96211-A;
	to node110010096211-A;
};

object underground_line {
	phases ACB;
	from node110010096211-A;
	name 1100100;
	to node94958-B1100100;
	length 33;
	configuration 1100101-LINECONFIG;
};

object underground_line {
	phases ACB;
	from node10808471100102;
	name 1126621;
	to node101704-B1126621;
	length 19;
	configuration 1100101-LINECONFIG;
};

object underground_line {
	phases ACB;
	from ARBOR LAKE;
	name 1069652;
	to nodeF956181069652;
	length 22;
	configuration 1151929-LINECONFIG;
};

object fuse {
	phases ACB;
	from nodeF956181069652;
	name F95618;
	current_limit 9999.0 A;
	to node1077550F95618;
};

object underground_line {
	phases ACB;
	from node1077550F95618;
	name 1077550;
	to node11004761077550;
	length 10;
	configuration 1151929-LINECONFIG;
};

object underground_line {
	phases ACB;
	from node11004761077550;
	name 1100476;
	to node95880-B1100476;
	length 308;
	configuration 1151929-LINECONFIG;
};

object switch {
	status CLOSED;
	phases ACB;
	from node95880-B1100476;
	name 95880-B;
	to node95880-A95880-B;
};

object switch {
	status CLOSED;
	phases ACB;
	from node95880-A95880-B;
	name 95880-A;
	to node110048695880-A;
};

object underground_line {
	phases ACB;
	from node110048695880-A;
	name 1100486;
	to node10740431100486;
	length 10;
	configuration 1151929-LINECONFIG;
};

object underground_line {
	phases ACB;
	from node10740431100486;
	name 1074043;
	to node94914-B1074043;
	length 24;
	configuration 1151929-LINECONFIG;
};

object underground_line {
	phases ACB;
	from node10740431100486;
	name 1100487;
	to node96359-B1100487;
	length 10;
	configuration 1151929-LINECONFIG;
};

object underground_line {
	phases ACB;
	from node10740431100486;
	name 1151990;
	to node102527-B1151990;
	length 10;
	configuration 1151929-LINECONFIG;
};

object switch {
	status CLOSED;
	phases ACB;
	from node102527-B1151990;
	name 102527-B;
	to node102527-A102527-B;
};

object switch {
	status CLOSED;
	phases ACB;
	from node102527-A102527-B;
	name 102527-A;
	to node1151998102527-A;
};

object underground_line {
	phases ACB;
	from node1151998102527-A;
	name 1151998;
	to node11007941151998;
	length 5486;
	configuration 1151929-LINECONFIG;
};

object underground_line {
	phases ACB;
	from node11007941151998;
	name 1100794;
	to node102531-B1100794;
	length 1040;
	configuration 1151929-LINECONFIG;
};

object switch {
	status CLOSED;
	phases ACB;
	from node102531-B1100794;
	name 102531-B;
	to node102531-A102531-B;
};

object switch {
	status CLOSED;
	phases ACB;
	from node102531-A102531-B;
	name 102531-A;
	to node1151928102531-A;
};

object underground_line {
	phases ACB;
	from node1151928102531-A;
	name 1151928;
	to node11519291151928;
	length 10;
	configuration 1151929-LINECONFIG;
};

object line_configuration {
	name 1151929-LINECONFIG;
	spacing 1085257-LINESPACING;
	conductor_A 1077542-LINECONFIGunderground_line_conductor58704;
	conductor_C 1077542-LINECONFIGunderground_line_conductor58704;
	conductor_B 1077542-LINECONFIGunderground_line_conductor58704;
};

object underground_line {
	phases ACB;
	from node11519291151928;
	name 1151929;
	to node102519-B1151929;
	length 18;
	configuration 1151929-LINECONFIG;
};

object switch {
	status CLOSED;
	phases ACB;
	from node102519-B1151929;
	name 102519-B;
	to node102519-A102519-B;
};

object switch {
	status CLOSED;
	phases ACB;
	from node102519-A102519-B;
	name 102519-A;
	to node1151941102519-A;
};

object underground_line {
	phases ACB;
	from node1151941102519-A;
	name 1151941;
	to node95987-B1151941;
	length 125;
	configuration 1151929-LINECONFIG;
};

object switch {
	status CLOSED;
	phases ACB;
	from node95987-B1151941;
	name 95987-B;
	to node95987-A95987-B;
};

object switch {
	status CLOSED;
	phases ACB;
	from node95987-A95987-B;
	name 95987-A;
	to node115193095987-A;
};

object underground_line {
	phases ACB;
	from node115193095987-A;
	name 1151930;
	to node10995851151930;
	length 12;
	configuration 1151929-LINECONFIG;
};

object underground_line {
	phases ACB;
	from node10995851151930;
	name 1099585;
	to node100703-B1099585;
	length 12;
	configuration 1151929-LINECONFIG;
};

object switch {
	status CLOSED;
	phases ACB;
	from node100703-B1099585;
	name 100703-B;
	to node100703-A100703-B;
};

object switch {
	status CLOSED;
	phases ACB;
	from node100703-A100703-B;
	name 100703-A;
	to node1106217100703-A;
};

object underground_line {
	phases ACB;
	from node1106217100703-A;
	name 1106217;
	to node10955541106217;
	length 32;
	configuration 1085257-LINECONFIG;
};

object underground_line {
	phases ACB;
	from node10955541106217;
	name 1095554;
	to node10955551095554;
	length 57;
	configuration 1085257-LINECONFIG;
};

object underground_line {
	phases ACB;
	from node10955541106217;
	name 1106218;
	to node11062161106218;
	length 70;
	configuration 1085257-LINECONFIG;
};

object underground_line {
	phases ACB;
	from node10955541106217;
	name 1106221;
	to node11062141106221;
	length 62;
	configuration 1085257-LINECONFIG;
};

object underground_line {
	phases ACB;
	from node10955541106217;
	name 1106222;
	to node11062151106222;
	length 61;
	configuration 1085257-LINECONFIG;
};

object underground_line {
	phases ACB;
	from node10955541106217;
	name 1106223;
	to node11062201106223;
	length 66;
	configuration 1085257-LINECONFIG;
};

object underground_line {
	phases ACB;
	from node10995851151930;
	name 1100119;
	to node102514-B1100119;
	length 516;
	configuration 1151929-LINECONFIG;
};

object switch {
	status CLOSED;
	phases ACB;
	from node102514-B1100119;
	name 102514-B;
	to node102514-A102514-B;
};

object switch {
	status CLOSED;
	phases ACB;
	from node102514-A102514-B;
	name 102514-A;
	to node1151936102514-A;
};

object underground_line {
	phases ACB;
	from node1151936102514-A;
	name 1151936;
	to node10808351151936;
	length 13;
	configuration 1151929-LINECONFIG;
};

object underground_line {
	phases ACB;
	from node10808351151936;
	name 1080835;
	to nodeD938651080835;
	length 16;
	configuration 1085257-LINECONFIG;
};

object fuse {
	phases ACB;
	from nodeD938651080835;
	name D93865;
	current_limit 9999.0 A;
	to node1080834D93865;
};

object underground_line {
	phases ACB;
	from node10808351151936;
	name 1100118;
	to node95653-B1100118;
	length 10;
	configuration 1085257-LINECONFIG;
};

object switch {
	status CLOSED;
	phases ACB;
	from node95653-B1100118;
	name 95653-B;
	to node95653-A95653-B;
};

object switch {
	status CLOSED;
	phases ACB;
	from node95653-A95653-B;
	name 95653-A;
	to node115193195653-A;
};

object underground_line {
	phases ACB;
	from node115193195653-A;
	name 1151931;
	to node102529-B1151931;
	length 145;
	configuration 1151929-LINECONFIG;
};

object switch {
	status CLOSED;
	phases ACB;
	from node102529-B1151931;
	name 102529-B;
	to node102529-A102529-B;
};

object switch {
	status CLOSED;
	phases ACB;
	from node102529-A102529-B;
	name 102529-A;
	to node1151940102529-A;
};

object underground_line {
	phases ACB;
	from node1151940102529-A;
	name 1151940;
	to node10741261151940;
	length 10;
	configuration 1151929-LINECONFIG;
};

object underground_line {
	phases ACB;
	from node10741261151940;
	name 1074126;
	to node95141-B1074126;
	length 25;
	configuration 1100101-LINECONFIG;
};

object underground_line {
	phases ACB;
	from node10741261151940;
	name 1151932;
	to node102523-B1151932;
	length 13;
	configuration 1151929-LINECONFIG;
};

object underground_line {
	phases ACB;
	from node10808351151936;
	name 1100120;
	to node96218-B1100120;
	length 10;
	configuration 1100101-LINECONFIG;
};

object switch {
	status CLOSED;
	phases ACB;
	from node96218-B1100120;
	name 96218-B;
	to node96218-A96218-B;
};

object switch {
	status CLOSED;
	phases ACB;
	from node96218-A96218-B;
	name 96218-A;
	to node110007596218-A;
};

object underground_line {
	phases ACB;
	from node110007596218-A;
	name 1100075;
	to node95654-B1100075;
	length 232;
	configuration 1100101-LINECONFIG;
};

object switch {
	status CLOSED;
	phases ACB;
	from node95654-B1100075;
	name 95654-B;
	to node95654-A95654-B;
};

object switch {
	status CLOSED;
	phases ACB;
	from node95654-A95654-B;
	name 95654-A;
	to node110006995654-A;
};

object underground_line {
	phases ACB;
	from node110006995654-A;
	name 1100069;
	to node10808321100069;
	length 10;
	configuration 1100101-LINECONFIG;
};

object underground_line {
	phases ACB;
	from node10808321100069;
	name 1080832;
	to nodeD938641080832;
	length 27;
	configuration 1085257-LINECONFIG;
};

object fuse {
	phases ACB;
	from nodeD938641080832;
	name D93864;
	current_limit 9999.0 A;
	to node1080833D93864;
};

object underground_line {
	phases ACB;
	from node10808321100069;
	name 1100077;
	to node96219-B1100077;
	length 10;
	configuration 1100101-LINECONFIG;
};

object switch {
	status CLOSED;
	phases ACB;
	from node96219-B1100077;
	name 96219-B;
	to node96219-A96219-B;
};

object switch {
	status CLOSED;
	phases ACB;
	from node96219-A96219-B;
	name 96219-A;
	to node110029596219-A;
};

object underground_line {
	phases ACB;
	from node110029596219-A;
	name 1100295;
	to node95720-B1100295;
	length 596;
	configuration 1100101-LINECONFIG;
};

object switch {
	status CLOSED;
	phases ACB;
	from node95720-B1100295;
	name 95720-B;
	to node95720-A95720-B;
};

object switch {
	status CLOSED;
	phases ACB;
	from node95720-A95720-B;
	name 95720-A;
	to node110029495720-A;
};

object underground_line {
	phases ACB;
	from node110029495720-A;
	name 1100294;
	to node10808301100294;
	length 10;
	configuration 1100101-LINECONFIG;
};

object underground_line {
	phases ACB;
	from node10808301100294;
	name 1080830;
	to nodeD988011080830;
	length 20;
	configuration 1085257-LINECONFIG;
};

object fuse {
	phases ACB;
	from nodeD988011080830;
	name D98801;
	current_limit 9999.0 A;
	to node1080829D98801;
};

object underground_line {
	phases ACB;
	from node10808301100294;
	name 1100298;
	to node96266-B1100298;
	length 10;
	configuration 1100101-LINECONFIG;
};

object switch {
	status CLOSED;
	phases ACB;
	from node96266-B1100298;
	name 96266-B;
	to node96266-A96266-B;
};

object switch {
	status CLOSED;
	phases ACB;
	from node96266-A96266-B;
	name 96266-A;
	to node110048896266-A;
};

object underground_line {
	phases ACB;
	from node110048896266-A;
	name 1100488;
	to node95832-B1100488;
	length 1279;
	configuration 1100101-LINECONFIG;
};

object switch {
	status CLOSED;
	phases ACB;
	from node95832-B1100488;
	name 95832-B;
	to node95832-A95832-B;
};

object switch {
	status CLOSED;
	phases ACB;
	from node95832-A95832-B;
	name 95832-A;
	to node110047395832-A;
};

object underground_line {
	phases ACB;
	from node110047395832-A;
	name 1100473;
	to node10752211100473;
	length 10;
	configuration 1100101-LINECONFIG;
};

object underground_line {
	phases ACB;
	from node10752211100473;
	name 1075221;
	to node94568-A1075221;
	length 19;
	configuration 1100101-LINECONFIG;
};

object underground_line {
	phases ACB;
	from node10752211100473;
	name 1078945;
	to nodeD928821078945;
	length 37;
	configuration 1085257-LINECONFIG;
};

object fuse {
	phases ACB;
	from nodeD928821078945;
	name D92882;
	current_limit 9999.0 A;
	to node1078946D92882;
};

object underground_line {
	phases ACB;
	from node1078946D92882;
	name 1078946;
	to node4356661078946;
	length 968;
	configuration 1085257-LINECONFIG;
};

object underground_line {
	phases ACB;
	from node10752211100473;
	name 1153296;
	to node102688-A1153296;
	length 19;
	configuration 1100101-LINECONFIG;
};

object underground_line {
	phases ACB;
	from node10808321100069;
	name 1104914;
	to nodeR989411104914;
	length 20;
	configuration 1085257-LINECONFIG;
};

object fuse {
	phases ACB;
	from nodeR989411104914;
	name R98941;
	current_limit 9999.0 A;
	to node1104918R98941;
};

object underground_line {
	phases ACB;
	from node1104918R98941;
	name 1104918;
	to node4479211104918;
	length 781;
	configuration 1085257-LINECONFIG;
};

object underground_line {
	phases ACB;
	from node11519291151928;
	name 1151934;
	to node102515-B1151934;
	length 12;
	configuration 1151929-LINECONFIG;
};

object switch {
	status CLOSED;
	phases ACB;
	from node102515-B1151934;
	name 102515-B;
	to node102515-A102515-B;
};

object switch {
	status CLOSED;
	phases ACB;
	from node102515-A102515-B;
	name 102515-A;
	to node1151933102515-A;
};

object underground_line {
	phases ACB;
	from node1151933102515-A;
	name 1151933;
	to node102523-A1151933;
	length 357;
	configuration 1151929-LINECONFIG;
};

object underground_line {
	phases ACB;
	from node11519291151928;
	name 1151984;
	to node102526-A1151984;
	length 41;
	configuration 1151929-LINECONFIG;
};

object underground_line {
	phases ACB;
	from ARBOR LAKE;
	name 1069653;
	to nodeF956191069653;
	length 27;
	configuration 1151929-LINECONFIG;
};

object fuse {
	phases ACB;
	from nodeF956191069653;
	name F95619;
	current_limit 9999.0 A;
	to node1077552F95619;
};

object underground_line {
	phases ACB;
	from node1077552F95619;
	name 1077552;
	to node11004581077552;
	length 10;
	configuration 1151929-LINECONFIG;
};

object underground_line {
	phases ACB;
	from node11004581077552;
	name 1100458;
	to node95879-B1100458;
	length 342;
	configuration 1151929-LINECONFIG;
};

object switch {
	status CLOSED;
	phases ACB;
	from node95879-B1100458;
	name 95879-B;
	to node95879-A95879-B;
};

object switch {
	status CLOSED;
	phases ACB;
	from node95879-A95879-B;
	name 95879-A;
	to node110045995879-A;
};

object underground_line {
	phases ACB;
	from node110045995879-A;
	name 1100459;
	to node10751311100459;
	length 10;
	configuration 1151929-LINECONFIG;
};

object underground_line {
	phases ACB;
	from node10751311100459;
	name 1075131;
	to node94913-B1075131;
	length 29;
	configuration 1151929-LINECONFIG;
};

object switch {
	status CLOSED;
	phases ACB;
	from node94913-B1075131;
	name 94913-B;
	to node94913-A94913-B;
};

object switch {
	status CLOSED;
	phases ACB;
	from node94913-A94913-B;
	name 94913-A;
	to node107404294913-A;
};

object underground_line {
	phases ACB;
	from node107404294913-A;
	name 1074042;
	to node11004921074042;
	length 25;
	configuration 1151929-LINECONFIG;
};

object underground_line {
	phases ACB;
	from node11004921074042;
	name 1100492;
	to node95904-B1100492;
	length 3416;
	configuration 1151929-LINECONFIG;
};

object switch {
	status CLOSED;
	phases ACB;
	from node95904-B1100492;
	name 95904-B;
	to node95904-A95904-B;
};

object switch {
	status CLOSED;
	phases ACB;
	from node95904-A95904-B;
	name 95904-A;
	to node110069995904-A;
};

object underground_line {
	phases ACB;
	from node110069995904-A;
	name 1100699;
	to node95905-B1100699;
	length 1896;
	configuration 1151929-LINECONFIG;
};

object switch {
	status CLOSED;
	phases ACB;
	from node95905-B1100699;
	name 95905-B;
	to node95905-A95905-B;
};

object switch {
	status CLOSED;
	phases ACB;
	from node95905-A95905-B;
	name 95905-A;
	to node110070095905-A;
};

object underground_line {
	phases ACB;
	from node110070095905-A;
	name 1100700;
	to node10752441100700;
	length 10;
	configuration 1151929-LINECONFIG;
};

object underground_line {
	phases ACB;
	from node10752441100700;
	name 1075244;
	to node94562-B1075244;
	length 70;
	configuration 1151929-LINECONFIG;
};

object underground_line {
	phases ACB;
	from node10752441100700;
	name 1100701;
	to node96389-B1100701;
	length 10;
	configuration 1151929-LINECONFIG;
};

object switch {
	status CLOSED;
	phases ACB;
	from node96389-B1100701;
	name 96389-B;
	to node96389-A96389-B;
};

object switch {
	status CLOSED;
	phases ACB;
	from node96389-A96389-B;
	name 96389-A;
	to node110079196389-A;
};

object underground_line {
	phases ACB;
	from node110079196389-A;
	name 1100791;
	to node95970-B1100791;
	length 215;
	configuration 1151929-LINECONFIG;
};

object switch {
	status CLOSED;
	phases ACB;
	from node95970-B1100791;
	name 95970-B;
	to node95970-A95970-B;
};

object switch {
	status CLOSED;
	phases ACB;
	from node95970-A95970-B;
	name 95970-A;
	to node110079295970-A;
};

object underground_line {
	phases ACB;
	from node110079295970-A;
	name 1100792;
	to node10789431100792;
	length 20;
	configuration 1151929-LINECONFIG;
};

object underground_line {
	phases ACB;
	from node10789431100792;
	name 1078943;
	to nodeR928811078943;
	length 38;
	configuration 1085257-LINECONFIG;
};

object fuse {
	phases ACB;
	from nodeR928811078943;
	name R92881;
	current_limit 9999.0 A;
	to node1078944R92881;
};

object underground_line {
	phases ACB;
	from node1078944R92881;
	name 1078944;
	to node10849791078944;
	length 700;
	configuration 1085257-LINECONFIG;
};

object underground_line {
	phases ACB;
	from node10849791078944;
	name 1084979;
	to node102517-B1084979;
	length 787;
	configuration 1085257-LINECONFIG;
};

object underground_line {
	phases ACB;
	from node10789431100792;
	name 1100789;
	to nodeR963971100789;
	length 67;
	configuration 1094591-LINECONFIG;
};

object fuse {
	phases ACB;
	from nodeR963971100789;
	name R96397;
	current_limit 9999.0 A;
	to node1100790R96397;
};

object underground_line {
	phases ACB;
	from node10752441100700;
	name 1100703;
	to node96364-B1100703;
	length 10;
	configuration 1100101-LINECONFIG;
};

object switch {
	status CLOSED;
	phases ACB;
	from node96364-B1100703;
	name 96364-B;
	to node96364-A96364-B;
};

object switch {
	status CLOSED;
	phases ACB;
	from node96364-A96364-B;
	name 96364-A;
	to node110438196364-A;
};

object underground_line {
	phases ACB;
	from node110438196364-A;
	name 1104381;
	to node98643-B1104381;
	length 1510;
	configuration 1100101-LINECONFIG;
};

object switch {
	status CLOSED;
	phases ACB;
	from node98643-B1104381;
	name 98643-B;
	to node98643-A98643-B;
};

object switch {
	status CLOSED;
	phases ACB;
	from node98643-A98643-B;
	name 98643-A;
	to node110438298643-A;
};

object underground_line {
	phases ACB;
	from node110438298643-A;
	name 1104382;
	to node11043771104382;
	length 10;
	configuration 1100101-LINECONFIG;
};

object underground_line {
	phases ACB;
	from node11043771104382;
	name 1104377;
	to node98641-B1104377;
	length 38;
	configuration 1151929-LINECONFIG;
};

object switch {
	status CLOSED;
	phases ACB;
	from node98641-B1104377;
	name 98641-B;
	to node98641-A98641-B;
};

object switch {
	status CLOSED;
	phases ACB;
	from node98641-A98641-B;
	name 98641-A;
	to node110437698641-A;
};

object underground_line {
	phases ACB;
	from node110437698641-A;
	name 1104376;
	to node94568-B1104376;
	length 1185;
	configuration 1151929-LINECONFIG;
};

object underground_line {
	phases ACB;
	from node11043771104382;
	name 1104379;
	to node98642-B1104379;
	length 10;
	configuration 1100101-LINECONFIG;
};

object switch {
	status CLOSED;
	phases ACB;
	from node98642-B1104379;
	name 98642-B;
	to node98642-A98642-B;
};

object switch {
	status CLOSED;
	phases ACB;
	from node98642-A98642-B;
	name 98642-A;
	to node110438098642-A;
};

object underground_line {
	phases ACB;
	from node110438098642-A;
	name 1104380;
	to node11043781104380;
	length 164;
	configuration 1100101-LINECONFIG;
};

object underground_line {
	phases ACB;
	from node11043781104380;
	name 1104378;
	to node95141-A1104378;
	length 923;
	configuration 1100101-LINECONFIG;
};

object underground_line {
	phases ACB;
	from node11043771104382;
	name 1151937;
	to nodeR1025081151937;
	length 22;
	configuration 1094591-LINECONFIG;
};

object fuse {
	phases ACB;
	from nodeR1025081151937;
	name R102508;
	current_limit 9999.0 A;
	to node1151938R102508;
};

object underground_line {
	phases ACB;
	from node1151938R102508;
	name 1151938;
	to node10733521151938;
	length 300;
	configuration 1094591-LINECONFIG;
};

object underground_line {
	phases C;
	from node10733521151938;
	name 1073352;
	to node4305981073352;
	length 68;
	configuration 1126616-LINECONFIG;
};

object underground_line {
	phases ACB;
	from node10733521151938;
	name 1099587;
	to node10849781099587;
	length 658;
	configuration 1085257-LINECONFIG;
};

object underground_line {
	phases ACB;
	from node10849781099587;
	name 1084978;
	to node11519391084978;
	length 699;
	configuration 1085257-LINECONFIG;
};

object underground_line {
	phases ACB;
	from node11519391084978;
	name 1151939;
	to node102517-A1151939;
	length 48;
	configuration 1085257-LINECONFIG;
};

object underground_line {
	phases ACB;
	from node11004921074042;
	name 1151935;
	to node96359-A1151935;
	length 10;
	configuration 1151929-LINECONFIG;
};

object underground_line {
	phases ACB;
	from node10751311100459;
	name 1081185;
	to nodeR940711081185;
	length 12;
	configuration 1085257-LINECONFIG;
};

object fuse {
	phases ACB;
	from nodeR940711081185;
	name R94071;
	current_limit 9999.0 A;
	to node1081186R94071;
};

object underground_line {
	phases ACB;
	from node1081186R94071;
	name 1081186;
	to node10757441081186;
	length 36;
	configuration 1085257-LINECONFIG;
};

object line_configuration {
	spacing 1085565-LINESPACING;
	conductor_A 1085257-LINECONFIGunderground_line_conductor24505;
	name 1075744-LINECONFIG;
};

object underground_line {
	phases A;
	from node10757441081186;
	name 1075744;
	to node95123-B1075744;
	length 26;
	configuration 1075744-LINECONFIG;
};

object underground_line {
	phases ACB;
	from node10757441081186;
	name 1102056;
	to node4458011102056;
	length 11;
	configuration 1094591-LINECONFIG;
};

object underground_line {
	phases ACB;
	from node10751311100459;
	name 1100467;
	to node96358-B1100467;
	length 10;
	configuration 1151929-LINECONFIG;
};

object switch {
	status CLOSED;
	phases ACB;
	from node96358-B1100467;
	name 96358-B;
	to node96358-A96358-B;
};

object switch {
	status CLOSED;
	phases ACB;
	from node96358-A96358-B;
	name 96358-A;
	to node110060096358-A;
};

object underground_line {
	phases ACB;
	from node110060096358-A;
	name 1100600;
	to node95906-B1100600;
	length 1774;
	configuration 1151929-LINECONFIG;
};

object switch {
	status CLOSED;
	phases ACB;
	from node95906-B1100600;
	name 95906-B;
	to node95906-A95906-B;
};

object switch {
	status CLOSED;
	phases ACB;
	from node95906-A95906-B;
	name 95906-A;
	to node110060195906-A;
};

object underground_line {
	phases ACB;
	from node110060195906-A;
	name 1100601;
	to node10808271100601;
	length 10;
	configuration 1151929-LINECONFIG;
};

object underground_line {
	phases ACB;
	from node10808271100601;
	name 1080827;
	to nodeR938611080827;
	length 26;
	configuration 1094591-LINECONFIG;
};

object fuse {
	phases ACB;
	from nodeR938611080827;
	name R93861;
	current_limit 9999.0 A;
	to node1080828R93861;
};

object underground_line {
	phases ACB;
	from node1080828R93861;
	name 1080828;
	to node10995941080828;
	length 118;
	configuration 1094591-LINECONFIG;
};

object overhead_line {
	phases ACBN;
	from node10995941080828;
	name 1099594;
	to node10704691099594;
	length 272;
	configuration 1099562-LINECONFIG;
};

object line_configuration {
	name 1070469-LINECONFIG;
	spacing 1099562-LINESPACING;
	conductor_N 1099708_conductor_N;
	conductor_A 1099708_conductor_N;
	conductor_C 1099708_conductor_N;
	conductor_B 1099708_conductor_N;
};

object overhead_line {
	phases ACB;
	from node10704691099594;
	name 1070469;
	to node10760031070469;
	length 240;
	configuration 1070469-LINECONFIG;
};

object underground_line {
	phases ACB;
	from node10760031070469;
	name 1076003;
	to node4381081076003;
	length 95;
	configuration 1094591-LINECONFIG;
};

object overhead_line {
	phases ACBN;
	from node10704691099594;
	name 1099595;
	to node10756321099595;
	length 399;
	configuration 1099562-LINECONFIG;
};

object underground_line {
	phases ACB;
	from node10756321099595;
	name 1075632;
	to node4353401075632;
	length 160;
	configuration 1094591-LINECONFIG;
};

object overhead_line {
	phases ACBN;
	from node10756321099595;
	name 1099560;
	to node10756331099560;
	length 223;
	configuration 1099562-LINECONFIG;
};

object underground_line {
	phases ACB;
	from node10756331099560;
	name 1075633;
	to node4373241075633;
	length 162;
	configuration 1094591-LINECONFIG;
};

object overhead_line {
	phases ACB;
	from node10756331099560;
	name 1093750;
	to node4413031093750;
	length 273;
	configuration 1099562-LINECONFIG;
};

object underground_line {
	phases ACB;
	from node10808271100601;
	name 1100602;
	to node96365-B1100602;
	length 10;
	configuration 1151929-LINECONFIG;
};

object switch {
	status CLOSED;
	phases ACB;
	from node96365-B1100602;
	name 96365-B;
	to node96365-A96365-B;
};

object switch {
	status CLOSED;
	phases ACB;
	from node96365-A96365-B;
	name 96365-A;
	to node110060396365-A;
};

object underground_line {
	phases ACB;
	from node110060396365-A;
	name 1100603;
	to node95903-B1100603;
	length 1660;
	configuration 1151929-LINECONFIG;
};

object switch {
	status CLOSED;
	phases ACB;
	from node95903-B1100603;
	name 95903-B;
	to node95903-A95903-B;
};

object switch {
	status CLOSED;
	phases ACB;
	from node95903-A95903-B;
	name 95903-A;
	to node110069695903-A;
};

object underground_line {
	phases ACB;
	from node110069695903-A;
	name 1100696;
	to node10789521100696;
	length 10;
	configuration 1151929-LINECONFIG;
};

object underground_line {
	phases ACB;
	from node10789521100696;
	name 1078952;
	to nodeR928871078952;
	length 32.997;
	configuration 1085257-LINECONFIG;
};

object fuse {
	phases ACB;
	from nodeR928871078952;
	name R92887;
	current_limit 9999.0 A;
	to node1078953R92887;
};

object underground_line {
	phases ACB;
	from node1078953R92887;
	name 1078953;
	to node10752461078953;
	length 32;
	configuration 1085257-LINECONFIG;
};

object underground_line {
	phases ACB;
	from node10752461078953;
	name 1075246;
	to node10996471075246;
	length 99;
	configuration 1094591-LINECONFIG;
};

object overhead_line {
	phases ACBN;
	from node10996471075246;
	name 1099647;
	to node10997061099647;
	length 418;
	configuration 1099562-LINECONFIG;
};

object overhead_line_conductor {
	geometric_mean_radius 0.00437;
	diameter 0.257;
	resistance 2.57;
	name 1099706_conductor_B;
};

object overhead_line {
	phases ACB;
	from node10997061099647;
	name 1099706;
	to node4521701099706;
	length 320;
	configuration 1099562-LINECONFIG;
};

object overhead_line {
	phases B;
	from node10997061099647;
	name 1099707;
	to nodeD928771099707;
	length 78;
	configuration 1099708-LINECONFIG;
};

object fuse {
	phases B;
	from nodeD928771099707;
	name D92877;
	current_limit 9999.0 A;
	to node1099708D92877;
};

object line_configuration {
	conductor_N 1099708_conductor_N;
	spacing 1099708-LINESPACING;
	name 1099708-LINECONFIG;
	conductor_B 1099708_conductor_N;
};

object line_spacing {
	distance_AN 0.000000;
	name 1099708-LINESPACING;
	distance_CN 0.000000;
	distance_BC 0.000000;
	distance_AB 0.000000;
	distance_AC 0.000000;
	distance_BN 4.000000;
};

object overhead_line_conductor {
	geometric_mean_radius 0.00479;
	diameter 0.162;
	resistance 2.44;
	name 1099708_conductor_N;
};

object overhead_line {
	phases B;
	from node1099708D92877;
	name 1099708;
	to node4503291099708;
	length 344;
	configuration 1099708-LINECONFIG;
};

object overhead_line {
	phases ACBN;
	from node10996471075246;
	name 1154078;
	to node10995611154078;
	length 114;
	configuration 1099562-LINECONFIG;
};

object overhead_line {
	phases ACBN;
	from node10995611154078;
	name 1099561;
	to node10760931099561;
	length 486;
	configuration 1099562-LINECONFIG;
};

object underground_line {
	phases ACB;
	from node10760931099561;
	name 1076093;
	to node4305971076093;
	length 407;
	configuration 1094591-LINECONFIG;
};

object line_configuration {
	name 1099562-LINECONFIG;
	spacing 1099562-LINESPACING;
	conductor_N 1099706_conductor_B;
	conductor_A 1099706_conductor_B;
	conductor_C 1099706_conductor_B;
	conductor_B 1099706_conductor_B;
};

object line_spacing {
	distance_AN 4.472136;
	name 1099562-LINESPACING;
	distance_CN 4.472136;
	distance_BC 4.472136;
	distance_AB 4.472136;
	distance_AC 8.000000;
	distance_BN 4.000000;
};

object overhead_line {
	phases ACB;
	from node10760931099561;
	name 1099562;
	to node4380961099562;
	length 377;
	configuration 1099562-LINECONFIG;
};

object underground_line {
	phases ACB;
	from node10752461078953;
	name 1076786;
	to node10752451076786;
	length 1430;
	configuration 1085257-LINECONFIG;
};

object line_configuration {
	spacing 1085565-LINESPACING;
	name 1075245-LINECONFIG;
	conductor_B 1085565-LINECONFIGunderground_line_conductor57303;
};

object underground_line {
	phases B;
	from node10752451076786;
	name 1075245;
	to node4401331075245;
	length 62;
	configuration 1075245-LINECONFIG;
};

object line_configuration {
	spacing 1089731-LINESPACING;
	conductor_A 1085565-LINECONFIGunderground_line_conductor57303;
	name 1089731-LINECONFIG;
	conductor_C 1085565-LINECONFIGunderground_line_conductor57303;
};

object line_spacing {
	distance_AN 0.0;
	name 1089731-LINESPACING;
	distance_CN 0.0;
	distance_BC 0.0;
	distance_AB 0.0;
	distance_AC 8.000000;
	distance_BN 0.0;
};

object underground_line {
	phases AC;
	from node10752451076786;
	name 1089731;
	to node4383191089731;
	length 79;
	configuration 1089731-LINECONFIG;
};

object line_configuration {
	spacing 1085565-LINESPACING;
	conductor_A 1085565-LINECONFIGunderground_line_conductor57303;
	name 1085565-LINECONFIG;
};

object line_spacing {
	distance_AN 0.0;
	name 1085565-LINESPACING;
	distance_CN 0.0;
	distance_BC 0.0;
	distance_AB 0.0;
	distance_AC 0.0;
	distance_BN 0.0;
};

object underground_line_conductor {
	conductor_gmr 0.1265;
	insulation_relative_permitivitty 2.4;
	conductor_resistance 1.74768;
	shield_resistance 0.000000;
	neutral_gmr 0.0317574;
	outer_diameter 1.150000;
	neutral_strands 16;
	neutral_resistance 1.3728;
	neutral_diameter 0.420040;
	conductor_diameter 0.398000;
	shield_gmr 0.000000;
	name 1085565-LINECONFIGunderground_line_conductor57303;
};

object underground_line {
	phases A;
	from node10752461078953;
	name 1085565;
	to node10855661085565;
	length 212;
	configuration 1085565-LINECONFIG;
};

object underground_line {
	phases A;
	from node10855661085565;
	name 1085566;
	to node4400141085566;
	length 59;
	configuration 1085565-LINECONFIG;
};

object underground_line {
	phases ACB;
	from node10789521100696;
	name 1100697;
	to node96388-B1100697;
	length 10;
	configuration 1151929-LINECONFIG;
};

object switch {
	status CLOSED;
	phases ACB;
	from node96388-B1100697;
	name 96388-B;
	to node96388-A96388-B;
};

object switch {
	status CLOSED;
	phases ACB;
	from node96388-A96388-B;
	name 96388-A;
	to node110069896388-A;
};

object underground_line {
	phases ACB;
	from node110069896388-A;
	name 1100698;
	to node94562-A1100698;
	length 1846;
	configuration 1151929-LINECONFIG;
};

object underground_line {
	phases ACB;
	from ARBOR LAKE;
	name 1155218;
	to nodeF956141155218;
	length 26;
	configuration 1151929-LINECONFIG;
};

object fuse {
	phases ACB;
	from nodeF956141155218;
	name F95614;
	current_limit 9999.0 A;
	to node1077542F95614;
};

object underground_line_conductor {
	conductor_gmr 0.05;
	insulation_relative_permitivitty 2.4;
	conductor_resistance 0.167899;
	shield_resistance 0.000000;
	neutral_gmr 0.0317574;
	outer_diameter 1.520004;
	neutral_strands 21;
	neutral_resistance 0.35904;
	neutral_diameter 0.120000;
	conductor_diameter 1.090000;
	shield_gmr 0.000000;
	name 1077542-LINECONFIGunderground_line_conductor58704;
};

object underground_line {
	phases ACB;
	from node1077542F95614;
	name 1077542;
	to node11005961077542;
	length 10;
	configuration 1151929-LINECONFIG;
};

object underground_line {
	phases ACB;
	from node11005961077542;
	name 1100596;
	to node95884-B1100596;
	length 239;
	configuration 1151929-LINECONFIG;
};

object switch {
	status CLOSED;
	phases ACB;
	from node95884-B1100596;
	name 95884-B;
	to node95884-A95884-B;
};

object switch {
	status CLOSED;
	phases ACB;
	from node95884-A95884-B;
	name 95884-A;
	to node110059795884-A;
};

object underground_line {
	phases ACB;
	from node110059795884-A;
	name 1100597;
	to node10739351100597;
	length 10;
	configuration 1151929-LINECONFIG;
};

object underground_line {
	phases ACB;
	from node10739351100597;
	name 1073935;
	to node94921-A1073935;
	length 37;
	configuration 1151929-LINECONFIG;
};

object underground_line {
	phases ACB;
	from node10739351100597;
	name 1078962;
	to nodeR928901078962;
	length 10;
	configuration 1085257-LINECONFIG;
};

object fuse {
	phases ACB;
	from nodeR928901078962;
	name R92890;
	current_limit 9999.0 A;
	to node1078963R92890;
};

object underground_line {
	phases ACB;
	from node10739351100597;
	name 1100598;
	to node96363-B1100598;
	length 10;
	configuration 1151929-LINECONFIG;
};

object switch {
	status CLOSED;
	phases ACB;
	from node96363-B1100598;
	name 96363-B;
	to node96363-A96363-B;
};

object switch {
	status CLOSED;
	phases ACB;
	from node96363-A96363-B;
	name 96363-A;
	to node110076896363-A;
};

object underground_line {
	phases ACB;
	from node110076896363-A;
	name 1100768;
	to node95963-B1100768;
	length 3189;
	configuration 1151929-LINECONFIG;
};

object switch {
	status CLOSED;
	phases ACB;
	from node95963-B1100768;
	name 95963-B;
	to node95963-A95963-B;
};

object switch {
	status CLOSED;
	phases ACB;
	from node95963-A95963-B;
	name 95963-A;
	to node110076995963-A;
};

object underground_line {
	phases ACB;
	from node110076995963-A;
	name 1100769;
	to node10811251100769;
	length 10;
	configuration 1151929-LINECONFIG;
};

object underground_line {
	phases ACB;
	from node10811251100769;
	name 1081125;
	to nodeR940381081125;
	length 27;
	configuration 1085257-LINECONFIG;
};

object fuse {
	phases ACB;
	from nodeR940381081125;
	name R94038;
	current_limit 9999.0 A;
	to node1099563R94038;
};

object underground_line {
	phases ACB;
	from node1099563R94038;
	name 1099563;
	to node10923861099563;
	length 1032;
	configuration 1085257-LINECONFIG;
};

object underground_line {
	phases C;
	from node10923861099563;
	name 1092386;
	to node10923871092386;
	length 58;
	configuration 1126616-LINECONFIG;
};

object underground_line {
	phases C;
	from node10923871092386;
	name 1092387;
	to node4408481092387;
	length 58.5367;
	configuration 1126616-LINECONFIG;
};

object underground_line {
	phases ACB;
	from node10923861099563;
	name 1155677;
	to node11556781155677;
	length 127;
	configuration 1094591-LINECONFIG;
};

object underground_line {
	phases ACB;
	from node11556781155677;
	name 1155678;
	to node11556791155678;
	length 295;
	configuration 1094591-LINECONFIG;
};

object underground_line {
	phases ACB;
	from node11556791155678;
	name 1155679;
	to node11556801155679;
	length 46;
	configuration 1094591-LINECONFIG;
};

object underground_line {
	phases ACB;
	from node11556801155679;
	name 1155680;
	to node11340401155680;
	length 266;
	configuration 1094591-LINECONFIG;
};

object underground_line {
	phases ACB;
	from node11340401155680;
	name 1134040;
	to node11340421134040;
	length 1341;
	configuration 1094591-LINECONFIG;
};

object underground_line {
	phases ACB;
	from node11340421134040;
	name 1134042;
	to node102029-A1134042;
	length 29;
	configuration 1094591-LINECONFIG;
};

object underground_line {
	phases ACB;
	from node10811251100769;
	name 1100770;
	to node96404-B1100770;
	length 10;
	configuration 1151929-LINECONFIG;
};

object switch {
	status CLOSED;
	phases ACB;
	from node96404-B1100770;
	name 96404-B;
	to node96404-A96404-B;
};

object switch {
	status CLOSED;
	phases ACB;
	from node96404-A96404-B;
	name 96404-A;
	to node110077196404-A;
};

object underground_line {
	phases ACB;
	from node110077196404-A;
	name 1100771;
	to node95652-B1100771;
	length 394;
	configuration 1151929-LINECONFIG;
};

object switch {
	status CLOSED;
	phases ACB;
	from node95652-B1100771;
	name 95652-B;
	to node95652-A95652-B;
};

object switch {
	status CLOSED;
	phases ACB;
	from node95652-A95652-B;
	name 95652-A;
	to node110014995652-A;
};

object underground_line {
	phases ACB;
	from node110014995652-A;
	name 1100149;
	to node10789591100149;
	length 10;
	configuration 1151929-LINECONFIG;
};

object underground_line {
	phases A;
	from node10789591100149;
	name 1078959;
	to nodeD928881078959;
	length 37;
	configuration 1085565-LINECONFIG;
};

object fuse {
	phases A;
	from nodeD928881078959;
	name D92888;
	current_limit 9999.0 A;
	to node1091549D92888;
};

object underground_line {
	phases A;
	from node1091549D92888;
	name 1091549;
	to node10999351091549;
	length 539;
	configuration 1085565-LINECONFIG;
};

object underground_line {
	phases A;
	from node10999351091549;
	name 1099935;
	to node10999341099935;
	length 1001;
...